AeroDyn airfoil file Created with QBlade CE v2.0.8.3_beta windows on 25.02.2025 at 15:52:59 Compatible with AeroDyn v13.0.
Polar "FX_77-W-121_Re0.012_M0.02_N9.0 360 M" on Foil "FX 77-W-121" :: generated by QBlade
1              Number of airfoil tables in this file
0              Table ID parameter
0.00           Stall angle (deg)
0              No longer used, enter zero
0              No longer used, enter zero
0              No longer used, enter zero
0.00           Angle of attack for zero Cn for linear Cn curve (deg)
0.00000        Cn slope for zero lift for linear Cn curve (1/rad)
0.0000         Cn at stall value for positive angle of attack for linear Cn curve
0.0000         Cn at stall value for negative angle of attack for linear Cn curve
0.00           Angle of attack for minimum CD (deg)
0.0000         Minimum CD value
  -180.000  0.044164  0.006000  0.012583
  -179.000  0.182422  0.006521  0.051980
  -178.000  0.320680  0.008082  0.091319
  -177.000  0.458709  0.010679  0.130517
  -176.000  0.591696  0.014306  0.168186
  -175.000  0.701086  0.018957  0.199059
  -174.000  0.757541  0.024625  0.214864
  -173.000  0.748360  0.031300  0.212114
  -172.000  0.697181  0.038971  0.197607
  -171.000  0.639942  0.047629  0.181541
  -170.000  0.596998  0.057259  0.169651
  -169.000  0.572445  0.067849  0.163058
  -168.000  0.563373  0.079384  0.160919
  -167.000  0.565621  0.091847  0.162048
  -166.000  0.575690  0.105222  0.165455
  -165.000  0.591033  0.119490  0.170420
  -164.000  0.609874  0.134632  0.176446
  -163.000  0.630990  0.150629  0.183192
  -162.000  0.653531  0.167458  0.190423
  -161.000  0.676892  0.185099  0.197973
  -160.000  0.700640  0.203527  0.205725
  -159.000  0.724449  0.222720  0.213592
  -158.000  0.748077  0.242651  0.221510
  -157.000  0.771331  0.263297  0.229431
  -156.000  0.794059  0.284629  0.237316
  -155.000  0.816139  0.306622  0.245136
  -154.000  0.837465  0.329246  0.252867
  -153.000  0.857950  0.352475  0.260488
  -152.000  0.877520  0.376277  0.267984
  -151.000  0.896107  0.400624  0.275340
  -150.000  0.913654  0.425484  0.282546
  -149.000  0.930108  0.450828  0.289591
  -148.000  0.945424  0.476622  0.296469
  -147.000  0.959559  0.502836  0.303171
  -146.000  0.972476  0.529437  0.309692
  -145.000  0.984142  0.556392  0.316028
  -144.000  0.994526  0.583668  0.322174
  -143.000  1.003602  0.611231  0.328130
  -142.000  1.011345  0.639048  0.333891
  -141.000  1.017736  0.667084  0.339458
  -140.000  1.022756  0.695305  0.344830
  -139.000  1.026391  0.723678  0.350007
  -138.000  1.028627  0.752167  0.354989
  -137.000  1.029457  0.780737  0.359780
  -136.000  1.028873  0.809355  0.364379
  -135.000  1.026870  0.837986  0.368791
  -134.000  1.023448  0.866595  0.373018
  -133.000  1.018607  0.895148  0.377063
  -132.000  1.012351  0.923611  0.380932
  -131.000  1.004686  0.951948  0.384627
  -130.000  0.995620  0.980127  0.388155
  -129.000  0.985164  1.008114  0.391520
  -128.000  0.973332  1.035874  0.394726
  -127.000  0.960138  1.063376  0.397781
  -126.000  0.945601  1.090586  0.400690
  -125.000  0.929741  1.117473  0.403459
  -124.000  0.912580  1.144003  0.406094
  -123.000  0.894142  1.170146  0.408601
  -122.000  0.874455  1.195870  0.410987
  -121.000  0.853545  1.221145  0.413258
  -120.000  0.831444  1.245942  0.415421
  -119.000  0.808184  1.270231  0.417481
  -118.000  0.783798  1.293983  0.419446
  -117.000  0.758323  1.317170  0.421320
  -116.000  0.731797  1.339766  0.423111
  -115.000  0.704257  1.361743  0.424824
  -114.000  0.675744  1.383075  0.426464
  -113.000  0.646301  1.403739  0.428038
  -112.000  0.615971  1.423708  0.429549
  -111.000  0.584797  1.442961  0.431004
  -110.000  0.552827  1.461474  0.432406
  -109.000  0.520105  1.479226  0.433759
  -108.000  0.486681  1.496196  0.435067
  -107.000  0.452093  1.512365  0.436294
  -106.000  0.417421  1.527712  0.437526
  -105.000  0.382194  1.542221  0.438723
  -104.000  0.346462  1.555875  0.439886
  -103.000  0.310276  1.568657  0.441017
  -102.000  0.273687  1.580553  0.442118
  -101.000  0.236749  1.591549  0.443190
  -100.000  0.199513  1.601632  0.444232
   -99.000  0.162032  1.610790  0.445245
   -98.000  0.124358  1.619013  0.446229
   -97.000  0.086545  1.626291  0.447183
   -96.000  0.048643  1.632616  0.448105
   -95.000  0.010707  1.637980  0.448994
   -94.000 -0.027213  1.642377  0.449847
   -93.000 -0.065064  1.645802  0.450663
   -92.000 -0.102795  1.648252  0.451438
   -91.000 -0.140356  1.649722  0.452168
   -90.000 -0.177696  1.650212  0.452852
   -89.000 -0.214765  1.649720  0.453484
   -88.000 -0.251516  1.648248  0.454060
   -87.000 -0.287899  1.645798  0.454576
   -86.000 -0.323867  1.642371  0.455027
   -85.000 -0.359375  1.637972  0.455407
   -84.000 -0.394378  1.632607  0.455713
   -83.000 -0.428829  1.626280  0.455938
   -82.000 -0.462688  1.619000  0.456077
   -81.000 -0.495912  1.610776  0.456124
   -80.000 -0.528459  1.601616  0.456073
   -79.000 -0.560291  1.591531  0.455919
   -78.000 -0.591370  1.580533  0.455656
   -77.000 -0.621658  1.568636  0.455277
   -76.000 -0.651121  1.555851  0.454778
   -75.000 -0.679724  1.542196  0.454151
   -74.000 -0.707436  1.527685  0.453392
   -73.000 -0.734224  1.512335  0.452495
   -72.000 -0.760060  1.496165  0.451454
   -71.000 -0.784915  1.479193  0.450264
   -70.000 -0.808764  1.461438  0.448919
   -69.000 -0.831582  1.442923  0.447416
   -68.000 -0.853346  1.423668  0.445749
   -67.000 -0.874034  1.403695  0.443914
   -66.000 -0.893628  1.383030  0.441906
   -65.000 -0.912108  1.361694  0.439722
   -64.000 -0.929458  1.339714  0.437359
   -63.000 -0.945665  1.317116  0.434812
   -62.000 -0.960714  1.293925  0.432080
   -61.000 -0.974595  1.270170  0.429160
   -60.000 -0.987298  1.245878  0.426050
   -59.000 -0.998816  1.221078  0.422748
   -58.000 -1.009141  1.195798  0.419254
   -57.000 -1.018270  1.170070  0.415565
   -56.000 -1.026200  1.143923  0.411682
   -55.000 -1.032929  1.117388  0.407605
   -54.000 -1.038458  1.090497  0.403334
   -53.000 -1.042790  1.063282  0.398871
   -52.000 -1.045927  1.035775  0.394216
   -51.000 -1.047875  1.008009  0.389372
   -50.000 -1.048641  0.980016  0.384340
   -49.000 -1.048233  0.951831  0.379123
   -48.000 -1.046661  0.923486  0.373724
   -47.000 -1.043938  0.895017  0.368148
   -46.000 -1.040074  0.866456  0.362396
   -45.000 -1.035086  0.837839  0.356475
   -44.000 -1.028989  0.809199  0.350389
   -43.000 -1.021800  0.780571  0.344141
   -42.000 -1.013538  0.751990  0.337739
   -41.000 -1.004224  0.723490  0.331188
   -40.000 -0.993878  0.695105  0.324493
   -39.000 -0.982524  0.666871  0.317662
   -38.000 -0.970186  0.638820  0.310701
   -37.000 -0.956890  0.610988  0.303617
   -36.000 -0.942663  0.583408  0.296418
   -35.000 -0.927535  0.556114  0.289111
   -34.000 -0.911535  0.529139  0.281704
   -33.000 -0.894696  0.502515  0.274206
   -32.000 -0.877053  0.476277  0.266626
   -31.000 -0.858641  0.450455  0.258973
   -30.000 -0.839499  0.425081  0.251257
   -29.000 -0.819669  0.400186  0.235713
   -28.000 -0.799196  0.375802  0.220170
   -27.000 -0.778127  0.351957  0.204626
   -26.000 -0.756519  0.328681  0.189082
   -25.000 -0.734430  0.306002  0.173538
   -24.000 -0.711931  0.283947  0.157994
   -23.000 -0.689101  0.262544  0.142450
   -22.000 -0.666035  0.241816  0.126907
   -21.000 -0.642850  0.221789  0.111363
   -20.000 -0.619690  0.202485  0.095819
   -19.000 -0.596741  0.183925  0.080275
   -18.000 -0.574246  0.166129  0.064731
   -17.000 -0.552536  0.149112  0.049188
   -16.000 -0.532072  0.132888  0.033644
   -15.000 -0.327500  0.174500  0.018100
   -14.500 -0.294300  0.166850  0.013900
   -14.000 -0.242400  0.153720  0.006300
   -13.500 -0.190700  0.142910 -0.003300
   -13.000 -0.144900  0.129080 -0.013000
   -12.500 -0.122100  0.125500 -0.016100
   -12.000 -0.102400  0.118440 -0.018700
   -11.000 -0.064400  0.107410 -0.024100
   -10.000 -0.025000  0.096950 -0.029400
    -9.000  0.014500  0.087470 -0.034100
    -8.500  0.029600  0.081550 -0.036600
    -8.000 -0.014300  0.085670 -0.024600
    -7.500 -0.085400  0.090370 -0.012200
    -6.500 -0.228300  0.097620  0.004500
    -6.000 -0.285000  0.096810  0.012600
    -5.000 -0.367200  0.099310  0.019800
    -4.500 -0.458700  0.093700  0.025800
    -4.000 -0.486200  0.091230  0.025900
    -3.500 -0.499800  0.088540  0.024000
    -3.000 -0.514400  0.079960  0.027800
    -2.500 -0.506600  0.078630  0.021600
    -2.000 -0.490600  0.069750  0.023000
    -1.500 -0.455000  0.064940  0.019900
    -1.000 -0.390900  0.059860  0.014900
    -0.500 -0.342000  0.057860  0.011700
     0.000 -0.246300  0.052890  0.003400
     0.500 -0.060500  0.054160 -0.023800
     1.000 -0.025600  0.056300 -0.021900
     1.500  0.002700  0.058210 -0.021500
     2.000  0.036600  0.060130 -0.020300
     2.500  0.059400  0.062810 -0.020800
     3.000  0.095600  0.064930 -0.019300
     3.500  0.124200  0.067510 -0.018900
    25.500  0.959900  0.378390 -0.106700
    26.000  0.968800  0.386920 -0.110100
    26.500  0.967400  0.390040 -0.112500
    27.000  0.586609  0.360699 -0.117720
    28.000  0.597034  0.385934 -0.128159
    29.000  0.606872  0.411793 -0.138598
    30.000  0.616109  0.438245 -0.149037
    31.000  0.624733  0.465256 -0.159476
    32.000  0.632732  0.492796 -0.169916
    33.000  0.640096  0.520829 -0.180355
    34.000  0.646816  0.549324 -0.190794
    35.000  0.652884  0.578244 -0.201233
    36.000  0.658293  0.607556 -0.211672
    37.000  0.663039  0.637224 -0.222112
    38.000  0.667117  0.667211 -0.232551
    39.000  0.670523  0.697481 -0.242990
    40.000  0.673256  0.727998 -0.253429
    41.000  0.675315  0.758724 -0.263868
    42.000  0.676700  0.789622 -0.275589
    43.000  0.677411  0.820655 -0.282110
    44.000  0.677451  0.851783 -0.288648
    45.000  0.676822  0.882970 -0.295198
    46.000  0.675527  0.914176 -0.301755
    47.000  0.673571  0.945364 -0.308313
    48.000  0.670958  0.976495 -0.314867
    49.000  0.667694  1.007531 -0.321412
    50.000  0.663786  1.038433 -0.327939
    51.000  0.659240  1.069164 -0.334444
    52.000  0.654063  1.099685 -0.340919
    53.000  0.648263  1.129959 -0.347358
    54.000  0.641849  1.159948 -0.353752
    55.000  0.634830  1.189614 -0.360095
    56.000  0.627215  1.218922 -0.366378
    57.000  0.619013  1.247834 -0.372594
    58.000  0.610235  1.276315 -0.378734
    59.000  0.600891  1.304329 -0.384790
    60.000  0.590992  1.331841 -0.390754
    61.000  0.580549  1.358817 -0.396618
    62.000  0.569574  1.385223 -0.402372
    63.000  0.558077  1.411026 -0.408009
    64.000  0.546070  1.436194 -0.413519
    65.000  0.533567  1.460695 -0.418894
    66.000  0.520578  1.484498 -0.424126
    67.000  0.507117  1.507574 -0.429206
    68.000  0.493196  1.529894 -0.434126
    69.000  0.478828  1.551430 -0.438877
    70.000  0.464026  1.572154 -0.443453
    71.000  0.448802  1.592040 -0.447844
    72.000  0.433171  1.611064 -0.452044
    73.000  0.417146  1.629202 -0.456046
    74.000  0.400739  1.646430 -0.459842
    75.000  0.383965  1.662727 -0.463425
    76.000  0.366838  1.678073 -0.466791
    77.000  0.349371  1.692448 -0.469932
    78.000  0.331578  1.705833 -0.472843
    79.000  0.313474  1.718213 -0.475520
    80.000  0.295073  1.729571 -0.477958
    81.000  0.276389  1.739894 -0.480153
    82.000  0.257437  1.749167 -0.482100
    83.000  0.238231  1.757380 -0.483798
    84.000  0.218787  1.764521 -0.485244
    85.000  0.199120  1.770583 -0.486435
    86.000  0.179245  1.775558 -0.487371
    87.000  0.159177  1.779438 -0.488049
    88.000  0.138931  1.782219 -0.488471
    89.000  0.118525  1.783899 -0.488636
    90.000  0.097974  1.784474 -0.488544
    91.000  0.077294  1.783944 -0.488198
    92.000  0.056502  1.782310 -0.487599
    93.000  0.035614  1.779573 -0.486750
    94.000  0.014648  1.775738 -0.485653
    95.000 -0.006378  1.770810 -0.484312
    96.000 -0.027447  1.764794 -0.482731
    97.000 -0.048542  1.757698 -0.480915
    98.000 -0.069643  1.749531 -0.478868
    99.000 -0.090732  1.740304 -0.476596
   100.000 -0.111790  1.730029 -0.474104
   101.000 -0.132798  1.718718 -0.471399
   102.000 -0.153737  1.706385 -0.468487
   103.000 -0.174585  1.693048 -0.465376
   104.000 -0.195323  1.678721 -0.462072
   105.000 -0.215929  1.663425 -0.458583
   106.000 -0.236384  1.647177 -0.454917
   107.000 -0.256665  1.629999 -0.451081
   108.000 -0.276751  1.611912 -0.447083
   109.000 -0.300345  1.592940 -0.443268
   110.000 -0.319921  1.573106 -0.438984
   111.000 -0.339237  1.552434 -0.434564
   112.000 -0.358271  1.530953 -0.430015
   113.000 -0.376999  1.508688 -0.425346
   114.000 -0.395397  1.485667 -0.420565
   115.000 -0.413442  1.461920 -0.415680
   116.000 -0.431109  1.437477 -0.410699
   117.000 -0.448375  1.412367 -0.405631
   118.000 -0.465214  1.386624 -0.400482
   119.000 -0.481603  1.360279 -0.395260
   120.000 -0.497517  1.333365 -0.389973
   121.000 -0.512930  1.305916 -0.384627
   122.000 -0.527819  1.277966 -0.379228
   123.000 -0.542159  1.249551 -0.373783
   124.000 -0.555925  1.220706 -0.368296
   125.000 -0.569092  1.191466 -0.362775
   126.000 -0.581637  1.161869 -0.357222
   127.000 -0.593535  1.131952 -0.351644
   128.000 -0.604762  1.101751 -0.346043
   129.000 -0.615295  1.071304 -0.340423
   130.000 -0.625111  1.040649 -0.334786
   131.000 -0.634187  1.009825 -0.329137
   132.000 -0.642501  0.978868 -0.323475
   133.000 -0.650032  0.947818 -0.317803
   134.000 -0.656759  0.916713 -0.312122
   135.000 -0.662661  0.885591 -0.306432
   136.000 -0.667721  0.854490 -0.300733
   137.000 -0.671918  0.823450 -0.295025
   138.000 -0.675237  0.792507 -0.289307
   139.000 -0.677661  0.761700 -0.283577
   140.000 -0.679175  0.731067 -0.277834
   141.000 -0.679765  0.700645 -0.272076
   142.000 -0.679420  0.670471 -0.266300
   143.000 -0.678128  0.640582 -0.260505
   144.000 -0.675880  0.611014 -0.254687
   145.000 -0.672671  0.581802 -0.248843
   146.000 -0.668494  0.552983 -0.242970
   147.000 -0.663347  0.524592 -0.237066
   148.000 -0.657231  0.496661 -0.231128
   149.000 -0.650147  0.469225 -0.225153
   150.000 -0.642102  0.442317 -0.219138
   151.000 -0.633106  0.415968 -0.213082
   152.000 -0.623174  0.390210 -0.206985
   153.000 -0.612324  0.365074 -0.200846
   154.000 -0.600583  0.340590 -0.194666
   155.000 -0.587985  0.316786 -0.188448
   156.000 -0.574573  0.293690 -0.182199
   157.000 -0.560403  0.271329 -0.175926
   158.000 -0.545547  0.249730 -0.169643
   159.000 -0.530098  0.228917 -0.163369
   160.000 -0.514177  0.208914 -0.157128
   161.000 -0.497946  0.189745 -0.150960
   162.000 -0.481620  0.171431 -0.144916
   163.000 -0.465492  0.153994 -0.139071
   164.000 -0.449965  0.137452 -0.133530
   165.000 -0.435609  0.121824 -0.128447
   166.000 -0.423230  0.107128 -0.124042
   167.000 -0.413988  0.093380 -0.120635
   168.000 -0.409549  0.080594 -0.118695
   169.000 -0.412254  0.068785 -0.118879
   170.000 -0.425173  0.057965 -0.122060
   171.000 -0.451561  0.048144 -0.129169
   172.000 -0.492515  0.039335 -0.140532
   173.000 -0.541047  0.031544 -0.154187
   174.000 -0.574658  0.024779 -0.163741
   175.000 -0.560977  0.019047 -0.159940
   176.000 -0.485904  0.014352 -0.138667
   177.000 -0.367513  0.010699 -0.104986
   178.000 -0.232269  0.008088 -0.066413
   179.000 -0.094094  0.006522 -0.026929
   180.000  0.044164  0.006001  0.012632
   180.000  0.044164  0.006000  0.012583
